0,100.0,30 / PSS(tm)E-30 RAW created      Thu, Aug 14 2025 19:14
   FULL COPY OF NETMOM FROM APP RTVSA FAMNAME EMS IS MADE ON 14-Aug-2025 19:14:10
   /BASEFREQ=50.049 Hz AT 14-Aug-2025 19:14:03
79110 'AGHYOULE10' 110.00 1 0.00 0.00 2 1 1.0149 -18.750 1 , 'BUS AGHYOULE10 79110 110.00' 
79173 'AGHYOULE73' 33.00 2 0.00 0.00 30 13 1.0280 -20.314 1 , 'BUS AGHYOULE73 79173 33.00' 
79150 'AGHYOULE50' 33.00 1 0.00 0.00 2 1 1.0280 -20.314 1 , 'BUS AGHYOULE50 79150 33.00' 
79179 'AGHYOULE79' 33.00 2 0.00 0.00 30 13 1.0278 -20.291 1 , 'BUS AGHYOULE79 79179 33.00' 
70050 'ANTRIM50  ' 33.00 1 0.00 0.00 2 1 1.0142 -12.247 1 , 'BUS ANTRIM50   70050 33.00' 
70079 'ANTRIM79  ' 33.00 2 0.00 0.00 30 13 1.0145 -12.268 1 , 'BUS ANTRIM79   70079 33.00' 
70080 'ANTRIM80  ' 33.00 2 0.00 0.00 2 1 1.0147 -12.259 1 , 'BUS ANTRIM80   70080 33.00' 
70071 'ANTRIM71  ' 33.00 4 0.00 0.00 30 13 0.0000 0.000 1 , 'BUS ANTRIM71   70071 33.00' 
70010 'ANTRIM10  ' 110.00 1 0.00 0.00 2 1 1.0333 -10.373 1 , 'BUS ANTRIM10   70010 110.00' 
70011 'ANTRIM11  ' 110.00 1 0.00 0.00 2 1 1.0333 -10.374 1 , 'BUS ANTRIM11   70011 110.00' 
86330 'AUCROSH30 ' 275.00 1 0.00 236.00 2 1 1.0304 -0.024 1 , 'BUS AUCROSH30  86330 275.00' 
86310 'AUCROSH10 ' 110.00 1 0.00 0.00 2 1 1.0445 -5.141 1 , 'BUS AUCROSH10  86310 110.00' 
86311 'AUCROSH11 ' 110.00 1 0.00 0.00 2 1 1.0445 -5.141 1 , 'BUS AUCROSH11  86311 110.00' 
86312 'AUCROSH12 ' 110.00 1 0.00 0.00 2 1 1.0446 -5.126 1 , 'BUS AUCROSH12  86312 110.00' 
86313 'AUCROSH13 ' 110.00 1 0.00 0.00 2 1 1.0446 -5.126 1 , 'BUS AUCROSH13  86313 110.00' 
71071 'BALYMENA71' 33.00 2 0.00 0.00 30 13 1.0199 -12.440 1 , 'BUS BALYMENA71 71071 33.00' 
71050 'BALYMENA50' 33.00 1 0.00 0.54 2 1 1.0392 -12.312 1 , 'BUS BALYMENA50 71050 33.00' 
71079 'BALYMENA79' 33.00 4 0.00 0.00 30 13 0.0000 0.000 1 , 'BUS BALYMENA79 71079 33.00' 
71072 'BALYMENA72' 33.00 2 0.00 0.00 30 13 1.0409 -12.268 1 , 'BUS BALYMENA72 71072 33.00' 
71080 'BALYMENA80' 33.00 2 0.00 0.00 30 13 1.0405 -12.316 1 , 'BUS BALYMENA80 71080 33.00' 
71010 'BALYMENA10' 110.00 1 0.00 0.00 2 1 1.0338 -10.323 1 , 'BUS BALYMENA10 71010 110.00' 
71011 'BALYMENA11' 110.00 1 0.00 0.00 2 1 1.0329 -10.530 1 , 'BUS BALYMENA11 71011 110.00' 
0 / End of Bus Data
79173 03 0.26 0.05 0.053 0.053 1.0280 0 16.70 0.0000 0.2004 0.0 0.0 1.0 1 100.0 15.00 0.00 1 1.00 ,,,,,,, 'AGHYOULE W_MOLLY       '
79179 0S 0.28 -0.58 0.506 -0.575 1.0220 0 60.12 0.0000 0.1984 0.0 0.0 1.0 1 100.0 54.00 0.00 1 1.00 ,,,,,,, 'AGHYOULE W_SL_RUSHEN   '
79173 01 0.00 0.00 0.000 0.000 1.0220 0 15.03 0.0000 0.1999 0.0 0.0 1.0 1 100.0 14.00 0.00 1 1.00 ,,,,,,, 'AGHYOULE W_SNUG        '
70079 0E -0.15 1.06 1.061 1.061 1.0143 0 5.00 0.0000 0.1006 0.0 0.0 1.0 1 100.0 5.72 0.00 1 1.00 ,,,,,,, 'ANTRIM B_DUNORE_POINT  '
70080 0R 0.35 1.10 1.095 1.095 1.0144 0 6.37 0.0000 0.8332 0.0 0.0 1.0 1 100.0 5.72 0.00 1 1.00 ,,,,,,, 'ANTRIM PV_MILAR_FARM   '
0 / End of Generator Data
79110  79173     0 '01'  1  1  1   0.000000  -0.000600  2 'AGH1TX1 '  1   1 1.00
0.003900   0.246400 100.0
0.9833  110.00   0.000     90     99     99  -1  79173    1.1002    0.7996    1.0320    1.0120    19                 0 0.0000 0.0000
1.0000   33.00 "AGHYOULE AGH1TX1        "
70011  70050     0 '02'  1  1  1   0.000000  -0.000600  2 'ANT1TX1 '  1   1 1.00
0.003900   0.246400 100.0
1.0222  110.00   0.000     90     99     99  -1  70050    1.0777    0.9223    1.0289    0.9989    15                 0 0.0000 0.0000
1.0000   33.00 "ANTRIM   ANT1TX1        "
70010  70050     0 '03'  1  1  1   0.000000  -0.000600  2 'ANT1TX2 '  1   1 1.00
0.003900   0.247300 100.0
1.0222  110.00   0.000     90     99     99  -1  70050    1.0777    0.9223    1.0289    0.9989    15                 0 0.0000 0.0000
1.0000   33.00 "ANTRIM   ANT1TX2        "
86330  86311     0 '04'  1  1  1   0.000000   0.000000  2 'ITX1AL  '  1   1 1.00
0.002156   0.071880 100.0
1.0750  275.00   0.000    999    999    999   0      0    1.2625    0.9000    0.0000    0.0000    30                 0 0.0000 0.0000
1.0000  110.00 "AUCROSH  ITX1AL         "
0 / End of Transformer Data
2     0  -454.7520   999.9000 'NI      '
1     0  -656.4327   999.9000 'IE      '
4     0   443.1042   999.9000 'SP      '
3     0   668.1498   999.9000 'NGGB    '
12 0 0 0 'Kerry'
0 / End of Area data
0 / End of DC line data
0 / End of VSC DC line data
0 / End of Switched Shunt Data
0 / End of transformer impedance correction data
0 / End of some class of data
0 / End of some class of data
0 / End of Zone data
0 / End of some class of data
0 / End of some class of data
0 / End of some class of data